<?xml version='1.0' encoding='UTF-8'?>
<routes xmlns:xsi="http://www.w3.org/2001/XMLSchema-instance" xsi:noNamespaceSchemaLocation="http://sumo.dlr.de/xsd/routes_file.xsd">
    <vehicle depart="0.00" id="0" type="vehicle.jeep.wrangler_rubicon">
        <route edges="16.0.00 -1.0.00 -25.0.00 -10.0.00" />
    </vehicle>
    <vehicle depart="3.00" id="1" type="vehicle.jeep.wrangler_rubicon">
        <route edges="-23.0.00 -12.0.00 18.0.00 17.0.00 16.0.00 -1.0.00 -2.0.00" />
    </vehicle>
    <vehicle depart="6.00" id="2" type="vehicle.jeep.wrangler_rubicon">
        <route edges="2.0.00 -25.0.00 9.0.00 -22.0.00 -23.0.00 -12.0.00 18.0.00" />
    </vehicle>
    <vehicle depart="9.00" id="3" type="vehicle.audi.tt">
        <route edges="4.0.00 22.0.00 21.0.00 2.0.00 1.0.00 0.0.00 -14.0.00" />
    </vehicle>
    <vehicle depart="12.00" id="4" type="vehicle.audi.a2">
        <route edges="-6.0.00 19.0.00 18.0.00 4.0.00 22.0.00 -9.0.00 -10.0.00" />
    </vehicle>
    <vehicle depart="15.00" id="5" type="vehicle.audi.tt">
        <route edges="-2.0.00 -21.0.00 -9.0.00 -10.0.00 16.0.00 0.0.00" />
    </vehicle>
    <vehicle depart="18.00" id="6" type="vehicle.audi.a2">
        <route edges="-10.0.00 -17.0.00 -18.0.00 -19.0.00" />
    </vehicle>
    <vehicle depart="21.00" id="7" type="vehicle.audi.tt">
        <route edges="16.0.00 -1.0.00 -25.0.00 9.0.00 21.0.00 2.0.00 1.0.00" />
    </vehicle>
    <vehicle depart="24.00" id="8" type="vehicle.audi.tt">
        <route edges="-2.0.00 -21.0.00 -22.0.00 -4.0.00 -18.0.00 12.0.00" />
    </vehicle>
    <vehicle depart="27.00" id="9" type="vehicle.audi.tt">
        <route edges="23.0.00 22.0.00 -9.0.00 -10.0.00 16.0.00 -1.0.00" />
    </vehicle>
    <vehicle depart="30.00" id="10" type="vehicle.audi.tt">
        <route edges="23.0.00 22.0.00 21.0.00 2.0.00 -25.0.00 9.0.00 -22.0.00 -23.0.00 -12.0.00 18.0.00" />
    </vehicle>
    <vehicle depart="33.00" id="11" type="vehicle.audi.tt">
        <route edges="-25.0.00 -10.0.00 -17.0.00 -18.0.00" />
    </vehicle>
    <vehicle depart="36.00" id="12" type="vehicle.jeep.wrangler_rubicon">
        <route edges="7.0.00 19.0.00 18.0.00 17.0.00 16.0.00 -1.0.00 -25.0.00" />
    </vehicle>
    <vehicle depart="39.00" id="13" type="vehicle.audi.tt">
        <route edges="-14.0.00" />
    </vehicle>
    <vehicle depart="42.00" id="14" type="vehicle.jeep.wrangler_rubicon">
        <route edges="24.0.00 -12.0.00 -19.0.00 -7.0.00 14.0.00" />
    </vehicle>
    <vehicle depart="45.00" id="15" type="vehicle.audi.tt">
        <route edges="23.0.00 22.0.00 21.0.00 2.0.00" />
    </vehicle>
    <vehicle depart="48.00" id="16" type="vehicle.audi.tt">
        <route edges="1.0.00 0.0.00 -14.0.00 7.0.00" />
    </vehicle>
    <vehicle depart="51.00" id="17" type="vehicle.audi.tt">
        <route edges="-4.0.00 17.0.00 10.0.00" />
    </vehicle>
    <vehicle depart="54.00" id="18" type="vehicle.audi.a2">
        <route edges="24.0.00 -12.0.00 -19.0.00 -7.0.00 14.0.00" />
    </vehicle>
    <vehicle depart="57.00" id="19" type="vehicle.jeep.wrangler_rubicon">
        <route edges="25.0.00 1.0.00 -16.0.00 -17.0.00 -18.0.00 12.0.00" />
    </vehicle>
    <vehicle depart="60.00" id="20" type="vehicle.audi.tt">
        <route edges="19.0.00 18.0.00 4.0.00 22.0.00 -9.0.00 -10.0.00" />
    </vehicle>
    <vehicle depart="63.00" id="21" type="vehicle.jeep.wrangler_rubicon">
        <route edges="-21.0.00 -22.0.00 -23.0.00" />
    </vehicle>
    <vehicle depart="66.00" id="22" type="vehicle.audi.tt">
        <route edges="-14.0.00 7.0.00 19.0.00 18.0.00 17.0.00 16.0.00 -1.0.00 -2.0.00 -21.0.00" />
    </vehicle>
    <vehicle depart="69.00" id="23" type="vehicle.audi.tt">
        <route edges="-16.0.00 10.0.00 9.0.00 -22.0.00 -23.0.00" />
    </vehicle>
    <vehicle depart="72.00" id="24" type="vehicle.audi.tt">
        <route edges="16.0.00 -1.0.00 -2.0.00 -3.0.00" />
    </vehicle>
    <vehicle depart="75.00" id="25" type="vehicle.jeep.wrangler_rubicon">
        <route edges="-3.0.00 24.0.00 23.0.00 22.0.00 -9.0.00 25.0.00 -2.0.00" />
    </vehicle>
    <vehicle depart="78.00" id="26" type="vehicle.audi.tt">
        <route edges="-22.0.00 -4.0.00 -18.0.00 -19.0.00 6.0.00" />
    </vehicle>
    <vehicle depart="81.00" id="27" type="vehicle.audi.a2">
        <route edges="16.0.00 -1.0.00 -25.0.00 -10.0.00 -17.0.00 -18.0.00 -19.0.00 -7.0.00 14.0.00" />
    </vehicle>
    <vehicle depart="84.00" id="28" type="vehicle.jeep.wrangler_rubicon">
        <route edges="-18.0.00 12.0.00 23.0.00 22.0.00 21.0.00 2.0.00" />
    </vehicle>
    <vehicle depart="87.00" id="29" type="vehicle.audi.a2">
        <route edges="-18.0.00 12.0.00 23.0.00 -4.0.00" />
    </vehicle>
    <vehicle depart="90.00" id="30" type="vehicle.jeep.wrangler_rubicon">
        <route edges="9.0.00 21.0.00 2.0.00 -25.0.00 -10.0.00 16.0.00" />
    </vehicle>
    <vehicle depart="93.00" id="31" type="vehicle.audi.tt">
        <route edges="10.0.00 9.0.00 -22.0.00 -23.0.00 -12.0.00 18.0.00" />
    </vehicle>
    <vehicle depart="96.00" id="32" type="vehicle.jeep.wrangler_rubicon">
        <route edges="24.0.00 23.0.00 22.0.00" />
    </vehicle>
    <vehicle depart="99.00" id="33" type="vehicle.audi.a2">
        <route edges="-21.0.00 -9.0.00 -10.0.00" />
    </vehicle>
    <vehicle depart="102.00" id="34" type="vehicle.audi.a2">
        <route edges="-24.0.00 5.0.00 -21.0.00 -22.0.00" />
    </vehicle>
    <vehicle depart="105.00" id="35" type="vehicle.audi.a2">
        <route edges="-2.0.00 -21.0.00 -22.0.00 -4.0.00 -18.0.00 -19.0.00 6.0.00" />
    </vehicle>
    <vehicle depart="108.00" id="36" type="vehicle.audi.a2">
        <route edges="4.0.00 -23.0.00 -24.0.00" />
    </vehicle>
    <vehicle depart="111.00" id="37" type="vehicle.audi.tt">
        <route edges="17.0.00 10.0.00 9.0.00 -22.0.00 -4.0.00" />
    </vehicle>
    <vehicle depart="114.00" id="38" type="vehicle.audi.a2">
        <route edges="5.0.00 -21.0.00 -22.0.00 -23.0.00 -24.0.00 -6.0.00 -7.0.00 14.0.00 -8.0.00" />
    </vehicle>
    <vehicle depart="117.00" id="39" type="vehicle.jeep.wrangler_rubicon">
        <route edges="-22.0.00 -23.0.00 -24.0.00 5.0.00 -21.0.00" />
    </vehicle>
    <vehicle depart="120.00" id="40" type="vehicle.audi.tt">
        <route edges="10.0.00 9.0.00 -22.0.00" />
    </vehicle>
    <vehicle depart="123.00" id="41" type="vehicle.jeep.wrangler_rubicon">
        <route edges="12.0.00 23.0.00 22.0.00 -9.0.00 -10.0.00 -17.0.00 4.0.00" />
    </vehicle>
    <vehicle depart="126.00" id="42" type="vehicle.audi.tt">
        <route edges="-4.0.00 17.0.00 16.0.00 -1.0.00 -2.0.00" />
    </vehicle>
    <vehicle depart="129.00" id="43" type="vehicle.audi.tt">
        <route edges="9.0.00 21.0.00 2.0.00 1.0.00 0.0.00" />
    </vehicle>
    <vehicle depart="132.00" id="44" type="vehicle.jeep.wrangler_rubicon">
        <route edges="-14.0.00 7.0.00 6.0.00 24.0.00 23.0.00 22.0.00 -9.0.00 -10.0.00" />
    </vehicle>
    <vehicle depart="135.00" id="45" type="vehicle.audi.a2">
        <route edges="-16.0.00 -17.0.00 4.0.00 22.0.00 -9.0.00 -10.0.00 16.0.00" />
    </vehicle>
    <vehicle depart="138.00" id="46" type="vehicle.audi.a2">
        <route edges="22.0.00 21.0.00 -3.0.00 -6.0.00" />
    </vehicle>
    <vehicle depart="141.00" id="47" type="vehicle.audi.tt">
        <route edges="-12.0.00 18.0.00 17.0.00 10.0.00 9.0.00 -22.0.00 -4.0.00" />
    </vehicle>
    <vehicle depart="144.00" id="48" type="vehicle.audi.a2">
        <route edges="9.0.00 21.0.00 2.0.00 1.0.00" />
    </vehicle>
    <vehicle depart="147.00" id="49" type="vehicle.audi.tt">
        <route edges="7.0.00 19.0.00 18.0.00 17.0.00 10.0.00 25.0.00" />
    </vehicle>
    <vehicle depart="150.00" id="50" type="vehicle.audi.tt">
        <route edges="-1.0.00 -2.0.00 -21.0.00 -22.0.00 -23.0.00 -24.0.00 -6.0.00 19.0.00" />
    </vehicle>
    <vehicle depart="153.00" id="51" type="vehicle.jeep.wrangler_rubicon">
        <route edges="18.0.00 17.0.00 10.0.00 25.0.00 1.0.00" />
    </vehicle>
    <vehicle depart="156.00" id="52" type="vehicle.audi.tt">
        <route edges="-22.0.00 -4.0.00 17.0.00 16.0.00" />
    </vehicle>
    <vehicle depart="159.00" id="53" type="vehicle.audi.a2">
        <route edges="-16.0.00 -17.0.00 -18.0.00 -19.0.00 -7.0.00" />
    </vehicle>
    <vehicle depart="162.00" id="54" type="vehicle.audi.tt">
        <route edges="-8.0.00 -16.0.00 10.0.00 25.0.00 1.0.00 0.0.00 -14.0.00 7.0.00" />
    </vehicle>
    <vehicle depart="165.00" id="55" type="vehicle.audi.a2">
        <route edges="4.0.00 22.0.00 21.0.00 2.0.00 -25.0.00 9.0.00 -22.0.00" />
    </vehicle>
    <vehicle depart="168.00" id="56" type="vehicle.audi.a2">
        <route edges="0.0.00 -14.0.00 7.0.00 6.0.00 24.0.00 -12.0.00 -19.0.00" />
    </vehicle>
    <vehicle depart="171.00" id="57" type="vehicle.audi.tt">
        <route edges="5.0.00 -21.0.00 -9.0.00 25.0.00" />
    </vehicle>
    <vehicle depart="174.00" id="58" type="vehicle.audi.a2">
        <route edges="-23.0.00 -12.0.00 18.0.00 17.0.00 16.0.00" />
    </vehicle>
    <vehicle depart="177.00" id="59" type="vehicle.jeep.wrangler_rubicon">
        <route edges="14.0.00 -8.0.00 -16.0.00 -17.0.00 -18.0.00" />
    </vehicle>
    <vehicle depart="180.00" id="60" type="vehicle.jeep.wrangler_rubicon">
        <route edges="21.0.00 2.0.00 1.0.00" />
    </vehicle>
    <vehicle depart="183.00" id="61" type="vehicle.audi.a2">
        <route edges="22.0.00 21.0.00 2.0.00 1.0.00" />
    </vehicle>
    <vehicle depart="186.00" id="62" type="vehicle.audi.tt">
        <route edges="-1.0.00 -2.0.00 -21.0.00 -22.0.00 -23.0.00 -24.0.00" />
    </vehicle>
    <vehicle depart="189.00" id="63" type="vehicle.audi.a2">
        <route edges="-1.0.00 -25.0.00 -10.0.00 -17.0.00 -18.0.00 -19.0.00 6.0.00" />
    </vehicle>
    <vehicle depart="192.00" id="64" type="vehicle.jeep.wrangler_rubicon">
        <route edges="4.0.00 22.0.00 21.0.00 -3.0.00 24.0.00" />
    </vehicle>
    <vehicle depart="195.00" id="65" type="vehicle.audi.tt">
        <route edges="-24.0.00 5.0.00 -21.0.00 -22.0.00 -23.0.00 -12.0.00" />
    </vehicle>
    <vehicle depart="198.00" id="66" type="vehicle.audi.tt">
        <route edges="4.0.00 -23.0.00 -12.0.00 -19.0.00 6.0.00" />
    </vehicle>
    <vehicle depart="201.00" id="67" type="vehicle.jeep.wrangler_rubicon">
        <route edges="-14.0.00 7.0.00 6.0.00 24.0.00 23.0.00 22.0.00 -9.0.00" />
    </vehicle>
    <vehicle depart="204.00" id="68" type="vehicle.audi.a2">
        <route edges="-12.0.00 18.0.00 4.0.00 22.0.00 21.0.00" />
    </vehicle>
    <vehicle depart="207.00" id="69" type="vehicle.jeep.wrangler_rubicon">
        <route edges="21.0.00 2.0.00 1.0.00 -16.0.00 -17.0.00" />
    </vehicle>
    <vehicle depart="210.00" id="70" type="vehicle.jeep.wrangler_rubicon">
        <route edges="-9.0.00 25.0.00 1.0.00" />
    </vehicle>
    <vehicle depart="213.00" id="71" type="vehicle.audi.a2">
        <route edges="-22.0.00 -4.0.00 17.0.00 10.0.00 25.0.00" />
    </vehicle>
    <vehicle depart="216.00" id="72" type="vehicle.audi.tt">
        <route edges="-6.0.00 19.0.00 18.0.00 17.0.00 16.0.00 -1.0.00 -2.0.00" />
    </vehicle>
    <vehicle depart="219.00" id="73" type="vehicle.jeep.wrangler_rubicon">
        <route edges="1.0.00 -16.0.00 10.0.00 9.0.00 21.0.00 2.0.00" />
    </vehicle>
    <vehicle depart="222.00" id="74" type="vehicle.audi.tt">
        <route edges="-2.0.00 -21.0.00 -22.0.00 -23.0.00 -24.0.00" />
    </vehicle>
    <vehicle depart="225.00" id="75" type="vehicle.jeep.wrangler_rubicon">
        <route edges="9.0.00 21.0.00 2.0.00 -25.0.00 -10.0.00 16.0.00" />
    </vehicle>
    <vehicle depart="228.00" id="76" type="vehicle.audi.tt">
        <route edges="-7.0.00 14.0.00 -8.0.00 -16.0.00 10.0.00 25.0.00 1.0.00 0.0.00" />
    </vehicle>
    <vehicle depart="231.00" id="77" type="vehicle.audi.tt">
        <route edges="-16.0.00 10.0.00 25.0.00 -2.0.00" />
    </vehicle>
    <vehicle depart="234.00" id="78" type="vehicle.audi.a2">
        <route edges="-25.0.00 -10.0.00 -17.0.00 -18.0.00 12.0.00" />
    </vehicle>
    <vehicle depart="237.00" id="79" type="vehicle.audi.tt">
        <route edges="-21.0.00 -9.0.00 25.0.00 -2.0.00" />
    </vehicle>
    <vehicle depart="240.00" id="80" type="vehicle.audi.a2">
        <route edges="-12.0.00 18.0.00 17.0.00 16.0.00" />
    </vehicle>
    <vehicle depart="243.00" id="81" type="vehicle.jeep.wrangler_rubicon">
        <route edges="-21.0.00 -22.0.00 -23.0.00 -24.0.00 5.0.00" />
    </vehicle>
    <vehicle depart="246.00" id="82" type="vehicle.jeep.wrangler_rubicon">
        <route edges="25.0.00 -2.0.00 -21.0.00 -22.0.00 -23.0.00 -12.0.00" />
    </vehicle>
    <vehicle depart="249.00" id="83" type="vehicle.audi.tt">
        <route edges="-21.0.00 -22.0.00 -4.0.00 17.0.00" />
    </vehicle>
    <vehicle depart="252.00" id="84" type="vehicle.audi.a2">
        <route edges="-2.0.00 -21.0.00 -9.0.00 -10.0.00 -17.0.00" />
    </vehicle>
    <vehicle depart="255.00" id="85" type="vehicle.audi.a2">
        <route edges="6.0.00 24.0.00 -12.0.00 18.0.00 17.0.00 10.0.00" />
    </vehicle>
    <vehicle depart="258.00" id="86" type="vehicle.audi.a2">
        <route edges="-8.0.00 -16.0.00 -17.0.00 4.0.00 22.0.00" />
    </vehicle>
    <vehicle depart="261.00" id="87" type="vehicle.audi.tt">
        <route edges="23.0.00 -4.0.00 -18.0.00 -19.0.00" />
    </vehicle>
    <vehicle depart="264.00" id="88" type="vehicle.jeep.wrangler_rubicon">
        <route edges="-14.0.00 7.0.00 6.0.00 24.0.00 -12.0.00 -19.0.00 -7.0.00" />
    </vehicle>
    <vehicle depart="267.00" id="89" type="vehicle.audi.a2">
        <route edges="-6.0.00 -7.0.00 14.0.00 -8.0.00" />
    </vehicle>
    <vehicle depart="270.00" id="90" type="vehicle.jeep.wrangler_rubicon">
        <route edges="2.0.00 -25.0.00 9.0.00 -22.0.00 -4.0.00 17.0.00" />
    </vehicle>
    <vehicle depart="273.00" id="91" type="vehicle.jeep.wrangler_rubicon">
        <route edges="9.0.00 21.0.00 2.0.00 1.0.00 0.0.00 -14.0.00" />
    </vehicle>
    <vehicle depart="276.00" id="92" type="vehicle.jeep.wrangler_rubicon">
        <route edges="-6.0.00 19.0.00 18.0.00 17.0.00 16.0.00 -1.0.00 -25.0.00" />
    </vehicle>
    <vehicle depart="279.00" id="93" type="vehicle.jeep.wrangler_rubicon">
        <route edges="25.0.00 -2.0.00 -21.0.00" />
    </vehicle>
    <vehicle depart="282.00" id="94" type="vehicle.jeep.wrangler_rubicon">
        <route edges="-19.0.00 -7.0.00" />
    </vehicle>
    <vehicle depart="285.00" id="95" type="vehicle.audi.tt">
        <route edges="-6.0.00 19.0.00 18.0.00 4.0.00 -23.0.00" />
    </vehicle>
    <vehicle depart="288.00" id="96" type="vehicle.audi.a2">
        <route edges="-21.0.00 -22.0.00 -23.0.00 -24.0.00 5.0.00" />
    </vehicle>
    <vehicle depart="291.00" id="97" type="vehicle.audi.a2">
        <route edges="-7.0.00 14.0.00 -8.0.00 -16.0.00 10.0.00 25.0.00" />
    </vehicle>
    <vehicle depart="294.00" id="98" type="vehicle.audi.a2">
        <route edges="10.0.00 9.0.00 -22.0.00 -23.0.00 -12.0.00" />
    </vehicle>
    <vehicle depart="297.00" id="99" type="vehicle.audi.tt">
        <route edges="9.0.00 21.0.00 -3.0.00 24.0.00" />
    </vehicle>
    <vehicle depart="300.00" id="100" type="vehicle.audi.a2">
        <route edges="7.0.00 6.0.00" />
    </vehicle>
    <vehicle depart="303.00" id="101" type="vehicle.jeep.wrangler_rubicon">
        <route edges="24.0.00 23.0.00 -4.0.00 -18.0.00" />
    </vehicle>
    <vehicle depart="306.00" id="102" type="vehicle.audi.a2">
        <route edges="-9.0.00 25.0.00 -2.0.00" />
    </vehicle>
    <vehicle depart="309.00" id="103" type="vehicle.jeep.wrangler_rubicon">
        <route edges="-6.0.00 19.0.00 18.0.00 4.0.00 -23.0.00 -12.0.00" />
    </vehicle>
    <vehicle depart="312.00" id="104" type="vehicle.audi.tt">
        <route edges="-4.0.00 17.0.00 10.0.00 9.0.00" />
    </vehicle>
    <vehicle depart="315.00" id="105" type="vehicle.jeep.wrangler_rubicon">
        <route edges="-22.0.00 -4.0.00 -18.0.00 12.0.00 23.0.00 22.0.00" />
    </vehicle>
    <vehicle depart="318.00" id="106" type="vehicle.jeep.wrangler_rubicon">
        <route edges="-8.0.00 -1.0.00 -2.0.00 -21.0.00 -22.0.00 -23.0.00 -24.0.00 -6.0.00" />
    </vehicle>
    <vehicle depart="321.00" id="107" type="vehicle.audi.tt">
        <route edges="7.0.00 19.0.00 18.0.00 17.0.00 10.0.00 9.0.00" />
    </vehicle>
    <vehicle depart="324.00" id="108" type="vehicle.audi.tt">
        <route edges="10.0.00 9.0.00 -22.0.00 -23.0.00 -24.0.00 -6.0.00 19.0.00" />
    </vehicle>
    <vehicle depart="327.00" id="109" type="vehicle.audi.a2">
        <route edges="-18.0.00 12.0.00 23.0.00 22.0.00 21.0.00 2.0.00 -25.0.00 9.0.00 -22.0.00 -23.0.00" />
    </vehicle>
    <vehicle depart="330.00" id="110" type="vehicle.audi.a2">
        <route edges="7.0.00 19.0.00 12.0.00" />
    </vehicle>
    <vehicle depart="333.00" id="111" type="vehicle.jeep.wrangler_rubicon">
        <route edges="1.0.00 -16.0.00 10.0.00 9.0.00 21.0.00 2.0.00" />
    </vehicle>
    <vehicle depart="336.00" id="112" type="vehicle.audi.a2">
        <route edges="-12.0.00 18.0.00 17.0.00 16.0.00 0.0.00 -14.0.00 7.0.00 19.0.00 12.0.00" />
    </vehicle>
    <vehicle depart="339.00" id="113" type="vehicle.jeep.wrangler_rubicon">
        <route edges="0.0.00 -14.0.00 7.0.00 19.0.00 18.0.00 17.0.00 10.0.00 25.0.00" />
    </vehicle>
    <vehicle depart="342.00" id="114" type="vehicle.jeep.wrangler_rubicon">
        <route edges="-18.0.00 12.0.00 23.0.00 22.0.00 21.0.00 2.0.00 1.0.00 0.0.00 -14.0.00 7.0.00" />
    </vehicle>
    <vehicle depart="345.00" id="115" type="vehicle.audi.tt">
        <route edges="-14.0.00 7.0.00 6.0.00 24.0.00 -12.0.00 -19.0.00" />
    </vehicle>
    <vehicle depart="348.00" id="116" type="vehicle.jeep.wrangler_rubicon">
        <route edges="12.0.00 -24.0.00 -6.0.00 19.0.00 18.0.00" />
    </vehicle>
    <vehicle depart="351.00" id="117" type="vehicle.audi.tt">
        <route edges="-21.0.00 -9.0.00 25.0.00 1.0.00 -16.0.00" />
    </vehicle>
    <vehicle depart="354.00" id="118" type="vehicle.jeep.wrangler_rubicon">
        <route edges="4.0.00 22.0.00 -9.0.00 25.0.00 -2.0.00 -21.0.00" />
    </vehicle>
    <vehicle depart="357.00" id="119" type="vehicle.audi.a2">
        <route edges="12.0.00 -24.0.00 -6.0.00 -7.0.00 14.0.00" />
    </vehicle>
    <vehicle depart="360.00" id="120" type="vehicle.audi.tt">
        <route edges="-6.0.00 19.0.00 12.0.00" />
    </vehicle>
    <vehicle depart="363.00" id="121" type="vehicle.audi.tt">
        <route edges="0.0.00 -14.0.00 7.0.00 6.0.00" />
    </vehicle>
    <vehicle depart="366.00" id="122" type="vehicle.jeep.wrangler_rubicon">
        <route edges="-2.0.00 -21.0.00 -22.0.00 -23.0.00 -24.0.00 -6.0.00 19.0.00" />
    </vehicle>
    <vehicle depart="369.00" id="123" type="vehicle.jeep.wrangler_rubicon">
        <route edges="-21.0.00 -22.0.00 -4.0.00" />
    </vehicle>
    <vehicle depart="372.00" id="124" type="vehicle.audi.tt">
        <route edges="17.0.00 10.0.00 9.0.00 -22.0.00 -23.0.00" />
    </vehicle>
    <vehicle depart="375.00" id="125" type="vehicle.audi.a2">
        <route edges="-24.0.00 5.0.00 2.0.00 -25.0.00 9.0.00 21.0.00" />
    </vehicle>
    <vehicle depart="378.00" id="126" type="vehicle.jeep.wrangler_rubicon">
        <route edges="-12.0.00 -19.0.00 -7.0.00 14.0.00 -8.0.00" />
    </vehicle>
    <vehicle depart="381.00" id="127" type="vehicle.jeep.wrangler_rubicon">
        <route edges="9.0.00" />
    </vehicle>
    <vehicle depart="384.00" id="128" type="vehicle.jeep.wrangler_rubicon">
        <route edges="-12.0.00 18.0.00 17.0.00 16.0.00 -1.0.00 -2.0.00" />
    </vehicle>
    <vehicle depart="387.00" id="129" type="vehicle.audi.a2">
        <route edges="-22.0.00 -4.0.00 -18.0.00 -19.0.00 6.0.00" />
    </vehicle>
    <vehicle depart="390.00" id="130" type="vehicle.audi.tt">
        <route edges="4.0.00" />
    </vehicle>
    <vehicle depart="393.00" id="131" type="vehicle.jeep.wrangler_rubicon">
        <route edges="-3.0.00 24.0.00 23.0.00 -4.0.00 -18.0.00" />
    </vehicle>
    <vehicle depart="396.00" id="132" type="vehicle.audi.a2">
        <route edges="24.0.00 23.0.00 22.0.00 21.0.00 2.0.00 1.0.00 0.0.00 -14.0.00 7.0.00 19.0.00" />
    </vehicle>
    <vehicle depart="399.00" id="133" type="vehicle.audi.a2">
        <route edges="14.0.00 -8.0.00 -16.0.00 10.0.00 9.0.00" />
    </vehicle>
    <vehicle depart="402.00" id="134" type="vehicle.audi.tt">
        <route edges="17.0.00 16.0.00 -1.0.00" />
    </vehicle>
    <vehicle depart="405.00" id="135" type="vehicle.audi.tt">
        <route edges="23.0.00 22.0.00 21.0.00 2.0.00 -25.0.00 9.0.00 -22.0.00 -23.0.00" />
    </vehicle>
    <vehicle depart="408.00" id="136" type="vehicle.audi.tt">
        <route edges="17.0.00 16.0.00 0.0.00 -14.0.00 7.0.00 6.0.00" />
    </vehicle>
    <vehicle depart="411.00" id="137" type="vehicle.audi.a2">
        <route edges="-17.0.00 4.0.00 22.0.00 21.0.00 2.0.00 1.0.00 -16.0.00" />
    </vehicle>
    <vehicle depart="414.00" id="138" type="vehicle.audi.a2">
        <route edges="-16.0.00 10.0.00" />
    </vehicle>
    <vehicle depart="417.00" id="139" type="vehicle.audi.a2">
        <route edges="-22.0.00 -23.0.00 -24.0.00 -6.0.00 -7.0.00 14.0.00" />
    </vehicle>
    <vehicle depart="420.00" id="140" type="vehicle.audi.a2">
        <route edges="19.0.00 18.0.00 17.0.00 16.0.00 -1.0.00 -2.0.00" />
    </vehicle>
    <vehicle depart="423.00" id="141" type="vehicle.jeep.wrangler_rubicon">
        <route edges="16.0.00 -1.0.00 -2.0.00 -21.0.00 -22.0.00" />
    </vehicle>
    <vehicle depart="426.00" id="142" type="vehicle.jeep.wrangler_rubicon">
        <route edges="-9.0.00 25.0.00 -2.0.00 -21.0.00 -22.0.00 -23.0.00 -24.0.00 5.0.00" />
    </vehicle>
    <vehicle depart="429.00" id="143" type="vehicle.audi.tt">
        <route edges="24.0.00 23.0.00 22.0.00 21.0.00 2.0.00 1.0.00 0.0.00 -14.0.00" />
    </vehicle>
    <vehicle depart="432.00" id="144" type="vehicle.jeep.wrangler_rubicon">
        <route edges="-6.0.00 19.0.00 18.0.00 4.0.00 -23.0.00" />
    </vehicle>
    <vehicle depart="435.00" id="145" type="vehicle.audi.a2">
        <route edges="-1.0.00 -25.0.00 9.0.00 21.0.00" />
    </vehicle>
    <vehicle depart="438.00" id="146" type="vehicle.audi.tt">
        <route edges="16.0.00 -1.0.00 -2.0.00 -21.0.00 -22.0.00" />
    </vehicle>
    <vehicle depart="441.00" id="147" type="vehicle.audi.tt">
        <route edges="2.0.00 1.0.00 -16.0.00 10.0.00" />
    </vehicle>
    <vehicle depart="444.00" id="148" type="vehicle.jeep.wrangler_rubicon">
        <route edges="-7.0.00 14.0.00 -8.0.00 -1.0.00" />
    </vehicle>
    <vehicle depart="447.00" id="149" type="vehicle.jeep.wrangler_rubicon">
        <route edges="-14.0.00 7.0.00 19.0.00 18.0.00 4.0.00" />
    </vehicle>
    <vehicle depart="450.00" id="150" type="vehicle.audi.tt">
        <route edges="5.0.00 2.0.00 1.0.00" />
    </vehicle>
    <vehicle depart="453.00" id="151" type="vehicle.audi.tt">
        <route edges="24.0.00 23.0.00 -4.0.00 -18.0.00 12.0.00" />
    </vehicle>
    <vehicle depart="456.00" id="152" type="vehicle.jeep.wrangler_rubicon">
        <route edges="-17.0.00" />
    </vehicle>
    <vehicle depart="459.00" id="153" type="vehicle.audi.tt">
        <route edges="-24.0.00 -6.0.00 19.0.00 18.0.00 4.0.00" />
    </vehicle>
    <vehicle depart="462.00" id="154" type="vehicle.audi.a2">
        <route edges="22.0.00 -9.0.00 25.0.00" />
    </vehicle>
    <vehicle depart="465.00" id="155" type="vehicle.audi.a2">
        <route edges="4.0.00 22.0.00 -9.0.00 25.0.00 -2.0.00" />
    </vehicle>
    <vehicle depart="468.00" id="156" type="vehicle.jeep.wrangler_rubicon">
        <route edges="-21.0.00 -9.0.00 25.0.00 1.0.00 -16.0.00" />
    </vehicle>
    <vehicle depart="471.00" id="157" type="vehicle.jeep.wrangler_rubicon">
        <route edges="22.0.00 -9.0.00 -10.0.00 -17.0.00 4.0.00" />
    </vehicle>
    <vehicle depart="474.00" id="158" type="vehicle.audi.tt">
        <route edges="-6.0.00 -7.0.00 14.0.00" />
    </vehicle>
    <vehicle depart="477.00" id="159" type="vehicle.jeep.wrangler_rubicon">
        <route edges="-18.0.00 -19.0.00 6.0.00" />
    </vehicle>
    <vehicle depart="480.00" id="160" type="vehicle.audi.tt">
        <route edges="25.0.00 1.0.00 -16.0.00 10.0.00 9.0.00" />
    </vehicle>
    <vehicle depart="483.00" id="161" type="vehicle.audi.tt">
        <route edges="23.0.00 22.0.00 -9.0.00 -10.0.00 -17.0.00 4.0.00" />
    </vehicle>
    <vehicle depart="486.00" id="162" type="vehicle.audi.tt">
        <route edges="-1.0.00 -25.0.00 9.0.00 21.0.00 2.0.00" />
    </vehicle>
    <vehicle depart="489.00" id="163" type="vehicle.audi.tt">
        <route edges="-25.0.00 -10.0.00 -17.0.00 -18.0.00 -19.0.00 6.0.00" />
    </vehicle>
    <vehicle depart="492.00" id="164" type="vehicle.audi.tt">
        <route edges="23.0.00 22.0.00 -9.0.00 25.0.00" />
    </vehicle>
    <vehicle depart="495.00" id="165" type="vehicle.audi.tt">
        <route edges="23.0.00 22.0.00 21.0.00 2.0.00 -25.0.00 9.0.00 -22.0.00" />
    </vehicle>
    <vehicle depart="498.00" id="166" type="vehicle.audi.tt">
        <route edges="22.0.00 21.0.00 2.0.00 1.0.00 -16.0.00" />
    </vehicle>
    <vehicle depart="501.00" id="167" type="vehicle.audi.tt">
        <route edges="25.0.00" />
    </vehicle>
    <vehicle depart="504.00" id="168" type="vehicle.audi.tt">
        <route edges="-2.0.00 -3.0.00 24.0.00 23.0.00" />
    </vehicle>
    <vehicle depart="507.00" id="169" type="vehicle.audi.tt">
        <route edges="-8.0.00 -1.0.00 -2.0.00 -21.0.00 -22.0.00 -23.0.00 -24.0.00" />
    </vehicle>
    <vehicle depart="510.00" id="170" type="vehicle.audi.a2">
        <route edges="22.0.00 -9.0.00 25.0.00 -2.0.00 -21.0.00" />
    </vehicle>
    <vehicle depart="513.00" id="171" type="vehicle.audi.tt">
        <route edges="-1.0.00 -25.0.00 -10.0.00 -17.0.00 -18.0.00 -19.0.00" />
    </vehicle>
    <vehicle depart="516.00" id="172" type="vehicle.audi.a2">
        <route edges="-25.0.00 9.0.00 21.0.00 2.0.00 1.0.00 -16.0.00 10.0.00 25.0.00" />
    </vehicle>
    <vehicle depart="519.00" id="173" type="vehicle.audi.a2">
        <route edges="7.0.00 19.0.00 18.0.00 4.0.00 -23.0.00" />
    </vehicle>
    <vehicle depart="522.00" id="174" type="vehicle.audi.a2">
        <route edges="16.0.00 -1.0.00 -2.0.00 -21.0.00 -22.0.00 -4.0.00" />
    </vehicle>
    <vehicle depart="525.00" id="175" type="vehicle.audi.a2">
        <route edges="9.0.00 21.0.00 2.0.00 1.0.00" />
    </vehicle>
    <vehicle depart="528.00" id="176" type="vehicle.audi.a2">
        <route edges="6.0.00 24.0.00 23.0.00 22.0.00 21.0.00 2.0.00 1.0.00 -16.0.00" />
    </vehicle>
    <vehicle depart="531.00" id="177" type="vehicle.audi.tt">
        <route edges="7.0.00 6.0.00 24.0.00 -12.0.00 -19.0.00" />
    </vehicle>
    <vehicle depart="534.00" id="178" type="vehicle.jeep.wrangler_rubicon">
        <route edges="7.0.00 19.0.00 18.0.00 17.0.00 10.0.00 9.0.00 -22.0.00" />
    </vehicle>
    <vehicle depart="537.00" id="179" type="vehicle.jeep.wrangler_rubicon">
        <route edges="-16.0.00 -17.0.00 -18.0.00 -19.0.00 -7.0.00" />
    </vehicle>
    <vehicle depart="540.00" id="180" type="vehicle.audi.tt">
        <route edges="2.0.00 -25.0.00 9.0.00 -22.0.00 -23.0.00 -24.0.00" />
    </vehicle>
    <vehicle depart="543.00" id="181" type="vehicle.audi.tt">
        <route edges="14.0.00 -8.0.00 -16.0.00 10.0.00 25.0.00 1.0.00 0.0.00" />
    </vehicle>
    <vehicle depart="546.00" id="182" type="vehicle.audi.tt">
        <route edges="-4.0.00 -18.0.00 12.0.00" />
    </vehicle>
    <vehicle depart="549.00" id="183" type="vehicle.audi.a2">
        <route edges="-22.0.00 -23.0.00 -24.0.00 -6.0.00 19.0.00" />
    </vehicle>
    <vehicle depart="552.00" id="184" type="vehicle.audi.a2">
        <route edges="-1.0.00 -25.0.00 -10.0.00 -17.0.00 -18.0.00 -19.0.00 6.0.00" />
    </vehicle>
    <vehicle depart="555.00" id="185" type="vehicle.audi.a2">
        <route edges="1.0.00 0.0.00 -14.0.00 7.0.00 19.0.00" />
    </vehicle>
    <vehicle depart="558.00" id="186" type="vehicle.jeep.wrangler_rubicon">
        <route edges="2.0.00 -25.0.00 9.0.00 -22.0.00 -4.0.00 17.0.00" />
    </vehicle>
    <vehicle depart="561.00" id="187" type="vehicle.jeep.wrangler_rubicon">
        <route edges="-3.0.00 24.0.00 -12.0.00" />
    </vehicle>
    <vehicle depart="564.00" id="188" type="vehicle.audi.tt">
        <route edges="17.0.00 16.0.00 -1.0.00 -25.0.00" />
    </vehicle>
    <vehicle depart="567.00" id="189" type="vehicle.audi.a2">
        <route edges="-24.0.00 -6.0.00 19.0.00 18.0.00 17.0.00 16.0.00 0.0.00 -14.0.00 7.0.00 6.0.00 24.0.00" />
    </vehicle>
    <vehicle depart="570.00" id="190" type="vehicle.audi.tt">
        <route edges="19.0.00 12.0.00 -24.0.00" />
    </vehicle>
    <vehicle depart="573.00" id="191" type="vehicle.jeep.wrangler_rubicon">
        <route edges="-24.0.00 -6.0.00" />
    </vehicle>
    <vehicle depart="576.00" id="192" type="vehicle.audi.a2">
        <route edges="-6.0.00 19.0.00 18.0.00 4.0.00 -23.0.00" />
    </vehicle>
    <vehicle depart="579.00" id="193" type="vehicle.audi.tt">
        <route edges="-17.0.00 -18.0.00 12.0.00 -24.0.00 -6.0.00" />
    </vehicle>
    <vehicle depart="582.00" id="194" type="vehicle.audi.a2">
        <route edges="6.0.00 24.0.00 -12.0.00 18.0.00" />
    </vehicle>
    <vehicle depart="585.00" id="195" type="vehicle.jeep.wrangler_rubicon">
        <route edges="5.0.00 -21.0.00 -22.0.00 -23.0.00 -24.0.00 -6.0.00 -7.0.00 14.0.00" />
    </vehicle>
    <vehicle depart="588.00" id="196" type="vehicle.audi.a2">
        <route edges="-24.0.00 5.0.00 2.0.00 1.0.00" />
    </vehicle>
    <vehicle depart="591.00" id="197" type="vehicle.audi.a2">
        <route edges="-1.0.00 -2.0.00 -21.0.00 -22.0.00 -23.0.00" />
    </vehicle>
    <vehicle depart="594.00" id="198" type="vehicle.audi.tt">
        <route edges="-7.0.00 14.0.00 -8.0.00 -16.0.00 -17.0.00 -18.0.00 12.0.00" />
    </vehicle>